Circuit: * Z:\home\kevin\institus_project\spice\lcd02.asc

V1: Removing PWL point (-0.201,3.91558)
V1: Removing PWL point (-0.125,3.95578)
V1: Removing PWL point (-0.104,3.95578)
V1: Removing PWL point (-0.0740001,3.95578)
V1: Removing PWL point (-0.0420001,3.91558)
V1: Removing PWL point (-0.0380001,3.95578)
V1: Removing PWL point (-0.0320001,3.95578)
V1: Removing PWL point (-0.0290001,3.99598)
V1: Removing PWL point (-0.0240001,3.95578)
V1: Removing PWL point (-0.0200001,3.91558)
V1: Removing PWL point (-0.0160001,3.91558)
V1: Removing PWL point (0.666,3.83518)
V1: Removing PWL point (0.706,3.99598)
V1: Removing PWL point (0.726,3.91558)
V1: Removing PWL point (0.729,3.95578)
V1: Removing PWL point (0.75,3.99598)
V1: Removing PWL point (0.802,3.91558)
V1: Removing PWL point (0.864,3.95578)
V1: Removing PWL point (0.902,3.95578)
V1: Removing PWL point (0.932,3.95578)
V1: Removing PWL point (0.941,3.95578)
V1: Removing PWL point (0.948,3.91558)
V1: Removing PWL point (0.951,3.95578)
V1: Removing PWL point (0.96,3.91558)
V1: Removing PWL point (0.972,3.95578)
V1: Removing PWL point (0.976,3.99598)
V1: Removing PWL point (0.985,3.95578)
V1: Removing PWL point (1.694,3.99598)
V1: Removing PWL point (1.748,3.95578)
V1: Removing PWL point (1.758,3.99598)
WARNING: Node OUT is floating.

WARNING: Less than two connections to node OUT.  This node is used by C2.
Direct Newton iteration for .op point succeeded.

Date: Fri May 02 16:00:49 2014
Total elapsed time: 6.201 seconds.

tnom = 27
temp = 27
method = modified trap
totiter = 169699
traniter = 169677
tranpoints = 56371
accept = 41935
rejected = 14436
matrix size = 123
fillins = 84
solver = Normal
Thread vector: 19.8/14.5[3] 11.7/6.8[3] 3.3/3.9[1] 1.2/3.2[1]  2592/500
Matrix Compiler1: 7.29 KB object code size  6.7/4.6/[2.0]
Matrix Compiler2: 9.32 KB object code size  3.6/4.7/[2.3]


