Circuit: * Z:\home\kevin\iph\spice\modulated_current_source.asc

Limiting rise time of source v2 to 5e-010
Limiting fall time of source v2 to 5e-010
Direct Newton iteration for .op point succeeded.

Date: Wed Jul 16 22:45:37 2014
Total elapsed time: 0.047 seconds.

tnom = 27
temp = 27
method = modified trap
totiter = 12067
traniter = 12056
tranpoints = 3728
accept = 3123
rejected = 605
matrix size = 8
fillins = 0
solver = Normal
Matrix Compiler1:      19 opcodes  0.3/[0.2]/0.2
Matrix Compiler2: off  [0.2]/0.2/0.2


